input/IEEE30busPsse30.raw
 0, 100.0/RAWD VER 30 EXPORT BY PSAT  
 IEEE 30 Bus Test Case

       1,'Glen Lyn    ', 132.00,3,          0.000,          0.000,   1,   1,1.06000,  98.4316,   1,/* [                                ] */
       2,'Claytor     ', 132.00,2,          0.000,          0.000,   1,   1,1.04313,  93.0798,   1,/* [                                ] */
       3,'Kumis       ', 132.00,1,          0.000,          0.000,   1,   1,1.02074,  90.8996,   1,/* [                                ] */
       4,'Hancock     ', 132.00,1,          0.000,          0.000,   1,   1,1.01176,  89.1475,   1,/* [                                ] */
       5,'Fieldale    ', 132.00,2,          0.000,          0.000,   1,   1,1.01000,  84.2658,   1,/* [                                ] */
       6,'Roanoke     ', 132.00,1,          0.000,          0.000,   1,   1,1.01026,  87.3670,   1,/* [                                ] */
       7,'Blaine      ', 132.00,1,          0.000,          0.000,   1,   1,1.00238,  85.5665,   1,/* [                                ] */
       8,'Reusens     ', 132.00,2,          0.000,          0.000,   1,   1,1.01000,  86.6183,   1,/* [                                ] */
       9,'Roanoke     ',   1.00,1,          0.000,          0.000,   1,   1,1.05091,  84.3227,   1,/* [                                ] */
      10,'Roanoke     ',  33.00,1,          0.000,         19.000,   1,   1,1.04513,  82.7320,   1,/* [                                ] */
      11,'Roanoke     ',  11.00,2,          0.000,          0.000,   1,   1,1.08200,  84.3227,   1,/* [                                ] */
      12,'Hancock     ',  33.00,1,          0.000,          0.000,   1,   1,1.05712,  83.4883,   1,/* [                                ] */
      13,'Hancock     ',  11.00,2,          0.000,          0.000,   1,   1,1.07100,  83.4883,   1,/* [                                ] */
      14,'Bus 14      ',  33.00,1,          0.000,          0.000,   1,   1,1.04228,  82.5962,   1,/* [                                ] */
      15,'Bus 15      ',  33.00,1,          0.000,          0.000,   1,   1,1.03768,  82.5042,   1,/* [                                ] */
      16,'Bus 16      ',  33.00,1,          0.000,          0.000,   1,   1,1.04439,  82.9053,   1,/* [                                ] */
      17,'Bus 17      ',  33.00,1,          0.000,          0.000,   1,   1,1.03990,  82.5702,   1,/* [                                ] */
      18,'Bus 18      ',  33.00,1,          0.000,          0.000,   1,   1,1.02815,  81.8899,   1,/* [                                ] */
      19,'Bus 19      ',  33.00,1,          0.000,          0.000,   1,   1,1.02565,  81.7162,   1,/* [                                ] */
      20,'Bus 20      ',  33.00,1,          0.000,          0.000,   1,   1,1.02974,  81.9128,   1,/* [                                ] */
      21,'Bus 21      ',  33.00,1,          0.000,          0.000,   1,   1,1.03273,  82.2893,   1,/* [                                ] */
      22,'Bus 22      ',  33.00,1,          0.000,          0.000,   1,   1,1.03326,  82.3035,   1,/* [                                ] */
      23,'Bus 23      ',  33.00,1,          0.000,          0.000,   1,   1,1.02718,  82.1135,   1,/* [                                ] */
      24,'Bus 24      ',  33.00,1,          0.000,          4.300,   1,   1,1.02158,  81.9370,   1,/* [                                ] */
      25,'Bus 25      ',  33.00,1,          0.000,          0.000,   1,   1,1.01734,  82.3648,   1,/* [                                ] */
      26,'Bus 26      ',  33.00,1,          0.000,          0.000,   1,   1,0.99966,  81.9452,   1,/* [                                ] */
      27,'Cloverdl    ',  33.00,1,          0.000,          0.000,   1,   1,1.02325,  82.8892,   1,/* [                                ] */
      28,'Cloverdl    ', 132.00,1,          0.000,          0.000,   1,   1,1.00682,  86.7432,   1,/* [                                ] */
      29,'Bus 29      ',  33.00,1,          0.000,          0.000,   1,   1,1.00341,  81.6593,   1,/* [                                ] */
      30,'Bus 30      ',  33.00,1,          0.000,          0.000,   1,   1,0.99194,  80.7765,   1,/* [                                ] */
0 / END OF BUS DATA, BEGIN LOAD DATA
     2,'1 ',1,   1,   1,    21.700,    12.700,     0.000,     0.000,     0.000,     0.000,   1,/* [                                ] */
     3,'1 ',1,   1,   1,     2.400,     1.200,     0.000,     0.000,     0.000,     0.000,   1,/* [                                ] */
     4,'1 ',1,   1,   1,     7.600,     1.600,     0.000,     0.000,     0.000,     0.000,   1,/* [                                ] */
     5,'1 ',1,   1,   1,    94.200,    19.000,     0.000,     0.000,     0.000,     0.000,   1,/* [                                ] */
     7,'1 ',1,   1,   1,    22.800,    10.900,     0.000,     0.000,     0.000,     0.000,   1,/* [                                ] */
     8,'1 ',1,   1,   1,    30.000,    30.000,     0.000,     0.000,     0.000,     0.000,   1,/* [                                ] */
    10,'1 ',1,   1,   1,     5.800,     2.000,     0.000,     0.000,     0.000,     0.000,   1,/* [                                ] */
    12,'1 ',1,   1,   1,    11.200,     7.500,     0.000,     0.000,     0.000,     0.000,   1,/* [                                ] */
    14,'1 ',1,   1,   1,     6.200,     1.600,     0.000,     0.000,     0.000,     0.000,   1,/* [                                ] */
    15,'1 ',1,   1,   1,     8.200,     2.500,     0.000,     0.000,     0.000,     0.000,   1,/* [                                ] */
    16,'1 ',1,   1,   1,     3.500,     1.800,     0.000,     0.000,     0.000,     0.000,   1,/* [                                ] */
    17,'1 ',1,   1,   1,     9.000,     5.800,     0.000,     0.000,     0.000,     0.000,   1,/* [                                ] */
    18,'1 ',1,   1,   1,     3.200,     0.900,     0.000,     0.000,     0.000,     0.000,   1,/* [                                ] */
    19,'1 ',1,   1,   1,     9.500,     3.400,     0.000,     0.000,     0.000,     0.000,   1,/* [                                ] */
    20,'1 ',1,   1,   1,     2.200,     0.700,     0.000,     0.000,     0.000,     0.000,   1,/* [                                ] */
    21,'1 ',1,   1,   1,    17.500,    11.200,     0.000,     0.000,     0.000,     0.000,   1,/* [                                ] */
    23,'1 ',1,   1,   1,     3.200,     1.600,     0.000,     0.000,     0.000,     0.000,   1,/* [                                ] */
    24,'1 ',1,   1,   1,     8.700,     6.700,     0.000,     0.000,     0.000,     0.000,   1,/* [                                ] */
    26,'1 ',1,   1,   1,     3.500,     2.300,     0.000,     0.000,     0.000,     0.000,   1,/* [                                ] */
    29,'1 ',1,   1,   1,     2.400,     0.900,     0.000,     0.000,     0.000,     0.000,   1,/* [                                ] */
    30,'1 ',1,   1,   1,    10.600,     1.900,     0.000,     0.000,     0.000,     0.000,   1,/* [                                ] */
0 / END OF LOAD DATA, BEGIN GENERATOR DATA
     1,'1 ',   260.95,   -16.79,    10.00,   -30.00,1.06000,     0,   100.00,      0.00000,      1.00000,      0.00000,      0.00000,1.00000,1,  100.0, 10000.00,-10000.00,   1,1.0000,,,,,,,,/* [                                ] */
     2,'1 ',    40.00,    50.00,    50.00,   -40.00,1.04500,     0,   100.00,      0.00000,      1.00000,      0.00000,      0.00000,1.00000,1,  100.0, 10000.00,-10000.00,   1,1.0000,,,,,,,,/* [                                ] */
     5,'1 ',     0.00,    36.85,    40.00,   -40.00,1.01000,     0,   100.00,      0.00000,      1.00000,      0.00000,      0.00000,1.00000,1,  100.0, 10000.00,-10000.00,   1,1.0000,,,,,,,,/* [                                ] */
     8,'1 ',     0.00,    37.14,    40.00,   -10.00,1.01000,     0,   100.00,      0.00000,      1.00000,      0.00000,      0.00000,1.00000,1,  100.0, 10000.00,-10000.00,   1,1.0000,,,,,,,,/* [                                ] */
    11,'1 ',     0.00,    16.17,    24.00,    -6.00,1.08200,     0,   100.00,      0.00000,      1.00000,      0.00000,      0.00000,1.00000,1,  100.0, 10000.00,-10000.00,   1,1.0000,,,,,,,,/* [                                ] */
    13,'1 ',     0.00,    10.62,    24.00,    -6.00,1.07100,     0,   100.00,      0.00000,      1.00000,      0.00000,      0.00000,1.00000,1,  100.0, 10000.00,-10000.00,   1,1.0000,,,,,,,,/* [                                ] */
 0 / END OF GENERATOR DATA, BEGIN BRANCH DATA
       1,       2,'1 ',    0.19200E-01,    0.57500E-01,    0.52800E-01,  130.00,    0.00,    0.00,  0.00000,  0.00000,  0.00000,  0.00000,1,   0.00,   1,1.0000,,,,,,,,/* [                                ] */
       1,       3,'1 ',    0.45200E-01,    0.16520    ,    0.40800E-01,  130.00,    0.00,    0.00,  0.00000,  0.00000,  0.00000,  0.00000,1,   0.00,   1,1.0000,,,,,,,,/* [                                ] */
       2,       4,'1 ',    0.57000E-01,    0.17370    ,    0.36800E-01,   65.00,    0.00,    0.00,  0.00000,  0.00000,  0.00000,  0.00000,1,   0.00,   1,1.0000,,,,,,,,/* [                                ] */
       2,       5,'1 ',    0.47200E-01,    0.19830    ,    0.41800E-01,  130.00,    0.00,    0.00,  0.00000,  0.00000,  0.00000,  0.00000,1,   0.00,   1,1.0000,,,,,,,,/* [                                ] */
       2,       6,'1 ',    0.58100E-01,    0.17630    ,    0.37400E-01,   65.00,    0.00,    0.00,  0.00000,  0.00000,  0.00000,  0.00000,1,   0.00,   1,1.0000,,,,,,,,/* [                                ] */
       3,       4,'1 ',    0.13200E-01,    0.37900E-01,    0.84000E-02,  130.00,    0.00,    0.00,  0.00000,  0.00000,  0.00000,  0.00000,1,   0.00,   1,1.0000,,,,,,,,/* [                                ] */
       4,       6,'1 ',    0.11900E-01,    0.41400E-01,    0.90000E-02,   90.00,    0.00,    0.00,  0.00000,  0.00000,  0.00000,  0.00000,1,   0.00,   1,1.0000,,,,,,,,/* [                                ] */
       5,       7,'1 ',    0.46000E-01,    0.11600    ,    0.20400E-01,   70.00,    0.00,    0.00,  0.00000,  0.00000,  0.00000,  0.00000,1,   0.00,   1,1.0000,,,,,,,,/* [                                ] */
       6,       7,'1 ',    0.26700E-01,    0.82000E-01,    0.17000E-01,  130.00,    0.00,    0.00,  0.00000,  0.00000,  0.00000,  0.00000,1,   0.00,   1,1.0000,,,,,,,,/* [                                ] */
       6,       8,'1 ',    0.12000E-01,    0.42000E-01,    0.90000E-02,   32.00,    0.00,    0.00,  0.00000,  0.00000,  0.00000,  0.00000,1,   0.00,   1,1.0000,,,,,,,,/* [                                ] */
       6,      28,'1 ',    0.16900E-01,    0.59900E-01,    0.13000E-01,    0.00,    0.00,    0.00,  0.00000,  0.00000,  0.00000,  0.00000,1,   0.00,   1,1.0000,,,,,,,,/* [                                ] */
       8,      28,'1 ',    0.63600E-01,    0.20000    ,    0.42800E-01,    0.00,    0.00,    0.00,  0.00000,  0.00000,  0.00000,  0.00000,1,   0.00,   1,1.0000,,,,,,,,/* [                                ] */
       9,      10,'1 ',     0.0000    ,    0.11000    ,     0.0000    ,    0.00,    0.00,    0.00,  0.00000,  0.00000,  0.00000,  0.00000,1,   0.00,   1,1.0000,,,,,,,,/* [                                ] */
       9,      11,'1 ',     0.0000    ,    0.20800    ,     0.0000    ,   65.00,    0.00,    0.00,  0.00000,  0.00000,  0.00000,  0.00000,1,   0.00,   1,1.0000,,,,,,,,/* [                                ] */
      10,      17,'1 ',    0.32400E-01,    0.84500E-01,     0.0000    ,    0.00,    0.00,    0.00,  0.00000,  0.00000,  0.00000,  0.00000,1,   0.00,   1,1.0000,,,,,,,,/* [                                ] */
      10,      20,'1 ',    0.93600E-01,    0.20900    ,     0.0000    ,   32.00,    0.00,    0.00,  0.00000,  0.00000,  0.00000,  0.00000,1,   0.00,   1,1.0000,,,,,,,,/* [                                ] */
      10,      21,'1 ',    0.34800E-01,    0.74900E-01,     0.0000    ,    0.00,    0.00,    0.00,  0.00000,  0.00000,  0.00000,  0.00000,1,   0.00,   1,1.0000,,,,,,,,/* [                                ] */
      10,      22,'1 ',    0.72700E-01,    0.14990    ,     0.0000    ,    0.00,    0.00,    0.00,  0.00000,  0.00000,  0.00000,  0.00000,1,   0.00,   1,1.0000,,,,,,,,/* [                                ] */
      12,      13,'1 ',     0.0000    ,    0.14000    ,     0.0000    ,   65.00,    0.00,    0.00,  0.00000,  0.00000,  0.00000,  0.00000,1,   0.00,   1,1.0000,,,,,,,,/* [                                ] */
      12,      14,'1 ',    0.12310    ,    0.25590    ,     0.0000    ,    0.00,    0.00,    0.00,  0.00000,  0.00000,  0.00000,  0.00000,1,   0.00,   1,1.0000,,,,,,,,/* [                                ] */
      12,      15,'1 ',    0.66200E-01,    0.13040    ,     0.0000    ,   32.00,    0.00,    0.00,  0.00000,  0.00000,  0.00000,  0.00000,1,   0.00,   1,1.0000,,,,,,,,/* [                                ] */
      12,      16,'1 ',    0.94500E-01,    0.19870    ,     0.0000    ,   16.00,    0.00,    0.00,  0.00000,  0.00000,  0.00000,  0.00000,1,   0.00,   1,1.0000,,,,,,,,/* [                                ] */
      14,      15,'1 ',    0.22100    ,    0.19970    ,     0.0000    ,   16.00,    0.00,    0.00,  0.00000,  0.00000,  0.00000,  0.00000,1,   0.00,   1,1.0000,,,,,,,,/* [                                ] */
      15,      18,'1 ',    0.10730    ,    0.21850    ,     0.0000    ,   16.00,    0.00,    0.00,  0.00000,  0.00000,  0.00000,  0.00000,1,   0.00,   1,1.0000,,,,,,,,/* [                                ] */
      15,      23,'1 ',    0.10000    ,    0.20200    ,     0.0000    ,    0.00,    0.00,    0.00,  0.00000,  0.00000,  0.00000,  0.00000,1,   0.00,   1,1.0000,,,,,,,,/* [                                ] */
      16,      17,'1 ',    0.52400E-01,    0.19230    ,     0.0000    ,   16.00,    0.00,    0.00,  0.00000,  0.00000,  0.00000,  0.00000,1,   0.00,   1,1.0000,,,,,,,,/* [                                ] */
      18,      19,'1 ',    0.63900E-01,    0.12920    ,     0.0000    ,   16.00,    0.00,    0.00,  0.00000,  0.00000,  0.00000,  0.00000,1,   0.00,   1,1.0000,,,,,,,,/* [                                ] */
      19,      20,'1 ',    0.34000E-01,    0.68000E-01,     0.0000    ,   16.00,    0.00,    0.00,  0.00000,  0.00000,  0.00000,  0.00000,1,   0.00,   1,1.0000,,,,,,,,/* [                                ] */
      21,      22,'1 ',    0.11600E-01,    0.23600E-01,     0.0000    ,    0.00,    0.00,    0.00,  0.00000,  0.00000,  0.00000,  0.00000,1,   0.00,   1,1.0000,,,,,,,,/* [                                ] */
      22,      24,'1 ',    0.11500    ,    0.17900    ,     0.0000    ,    0.00,    0.00,    0.00,  0.00000,  0.00000,  0.00000,  0.00000,1,   0.00,   1,1.0000,,,,,,,,/* [                                ] */
      23,      24,'1 ',    0.13200    ,    0.27000    ,     0.0000    ,    0.00,    0.00,    0.00,  0.00000,  0.00000,  0.00000,  0.00000,1,   0.00,   1,1.0000,,,,,,,,/* [                                ] */
      24,      25,'1 ',    0.18850    ,    0.32920    ,     0.0000    ,    0.00,    0.00,    0.00,  0.00000,  0.00000,  0.00000,  0.00000,1,   0.00,   1,1.0000,,,,,,,,/* [                                ] */
      25,      26,'1 ',    0.25440    ,    0.38000    ,     0.0000    ,    0.00,    0.00,    0.00,  0.00000,  0.00000,  0.00000,  0.00000,1,   0.00,   1,1.0000,,,,,,,,/* [                                ] */
      25,      27,'1 ',    0.10930    ,    0.20870    ,     0.0000    ,    0.00,    0.00,    0.00,  0.00000,  0.00000,  0.00000,  0.00000,1,   0.00,   1,1.0000,,,,,,,,/* [                                ] */
      27,      29,'1 ',    0.21980    ,    0.41530    ,     0.0000    ,    0.00,    0.00,    0.00,  0.00000,  0.00000,  0.00000,  0.00000,1,   0.00,   1,1.0000,,,,,,,,/* [                                ] */
      27,      30,'1 ',    0.32020    ,    0.60270    ,     0.0000    ,    0.00,    0.00,    0.00,  0.00000,  0.00000,  0.00000,  0.00000,1,   0.00,   1,1.0000,,,,,,,,/* [                                ] */
      29,      30,'1 ',    0.23990    ,    0.45330    ,     0.0000    ,    0.00,    0.00,    0.00,  0.00000,  0.00000,  0.00000,  0.00000,1,   0.00,   1,1.0000,,,,,,,,/* [                                ] */
0 / END OF BRANCH DATA, BEGIN TRANSFORMER DATA
       4,      12, 0,'1 ',1,1,1,   0.00000,   0.00000, 2,'', 1,   1,1.0000,,,,,,,
   0.00000,   0.25600
0.93200, 0,   0.000,   65.00,    0.00,    0.00,-1,       0,     1.1000    ,    0.90000    ,     1.5000    ,    0.50000    ,159,  0, 0., 0.
 1.00000, 0.,/* [                                ] */
       6,       9, 0,'1 ',1,1,1,   0.00000,   0.00000, 2,'', 1,   1,1.0000,,,,,,,
   0.00000,   0.20800
0.97800, 0,   0.000,   65.00,    0.00,    0.00,-1,       0,     1.1000    ,    0.90000    ,     1.5000    ,    0.50000    ,159,  0, 0., 0.
 1.00000, 0.,/* [                                ] */
       6,      10, 0,'1 ',1,1,1,   0.00000,   0.00000, 2,'', 1,   1,1.0000,,,,,,,
   0.00000,   0.55600
0.96900, 0,   0.000,   32.00,    0.00,    0.00,-1,       0,     1.1000    ,    0.90000    ,     1.5000    ,    0.50000    ,159,  0, 0., 0.
 1.00000, 0.,/* [                                ] */
      28,      27, 0,'1 ',1,1,1,   0.00000,   0.00000, 2,'', 1,   1,1.0000,,,,,,,
   0.00000,   0.39600
0.96800, 0,   0.000,    0.00,    0.00,    0.00,-1,       0,     1.1000    ,    0.90000    ,     1.5000    ,    0.50000    ,159,  0, 0., 0.
 1.00000, 0.,/* [                                ] */
0 / END OF TRANSFORMER DATA, BEGIN AREA DATA
    1,     0,     0.00,     1.00,'1           '
0 / END OF AREA DATA, BEGIN TWO-TERMINAL DC DATA
0 / END OF TWO-TERMINAL DC DATA, BEGIN VSC DC LINE DATA
0 / END OF VSC DC LINE DATA, BEGIN SWITCHED SHUNT DATA
 0 / END SWITCHED SHUNT DATA, BEGIN IMPEDANCE CORRECTION TABLE DATA
0 / END OF IMPEDANCE CORRECTION TABLE DATA, BEGIN MULTI-TERMINAL DC DATA
0 / END OF MULTI-TERMINAL DC DATA, BEGIN MULTI-SECTION LINE DATA
0 / END OF MULTI-SECTION LINE DATA, BEGIN ZONE DATA
    1,'IEEE 30     '
0 / END OF ZONE DATA, BEGIN INTER-AREA TRANSFER DATA
0 / END OF INTER-AREA TRANSFER DATA, BEGIN OWNER DATA
   1, '1           '
0 / END OF OWNER DATA, BEGIN FACTS DEVICE DATA
0 / END OF FACTS DATA
 0 /
